<?xml version="1.0" encoding="UTF-8"?>

<!-- generated on mié 07 jul 2021 21:19:02 by Eclipse SUMO netedit Version 1.4.0
<configuration xmlns:xsi="http://www.w3.org/2001/XMLSchema-instance" xsi:noNamespaceSchemaLocation="http://sumo.dlr.de/xsd/netconvertConfiguration.xsd">

    <input>
        <sumo-net-file value="/home/miguel/PycharmProjects/gatraffic/Nets/SimpleNet/net.net.xml"/>
    </input>

    <output>
        <output-file value="/home/miguel/PycharmProjects/gatraffic/Nets/SimpleNet/net.net.xml"/>
    </output>

    <processing>
        <geometry.min-radius.fix.railways value="false"/>
        <geometry.max-grade.fix value="false"/>
        <offset.disable-normalization value="true"/>
        <lefthand value="false"/>
    </processing>

    <junctions>
        <no-internal-links value="false"/>
        <no-turnarounds value="true"/>
        <junctions.corner-detail value="5"/>
        <junctions.limit-turn-speed value="5.5"/>
        <rectangular-lane-cut value="false"/>
    </junctions>

    <pedestrian>
        <walkingareas value="false"/>
    </pedestrian>

    <netedit>
        <additional-files value="/home/miguel/PycharmProjects/gatraffic/Nets/SimpleNet/additional.add.xml"/>
    </netedit>

    <report>
        <aggregate-warnings value="5"/>
    </report>

</configuration>
-->

<additional xmlns:xsi="http://www.w3.org/2001/XMLSchema-instance" xsi:noNamespaceSchemaLocation="http://sumo.dlr.de/xsd/additional_file.xsd">
    <e2Detector id="e2Detector_NI" lane="NI_1" pos="42.00" length="150.00" freq="300.00" file="e2Detector_NI.xml"/>
    <e2Detector id="e2Detector_WI" lane="WI_1" pos="42.00" length="150.00" freq="300.00" file="e2Detector_WI.xml"/>
    <e2Detector id="e2Detector_EI" lane="EI_1" pos="42.00" length="150.00" freq="300.00" file="e2Detector_EI.xml"/>
    <e2Detector id="e2Detector_SI" lane="SI_1" pos="42.00" length="150.00" freq="300.00" file="e2Detector_SI.xml"/>
</additional>
