<routes xmlns:xsi="http://www.w3.org/2001/XMLSchema-instance" xsi:noNamespaceSchemaLocation="http://sumo.dlr.de/xsd/routes_file.xsd">
    <route edges="NI IE" color="red" id="route_NE" />
    <route edges="NI IS" color="red" id="route_NS" />
    <route edges="NI IW" color="red" id="route_NW" />
    <route edges="WI IE" color="yellow" id="route_WE" />
    <route edges="WI IN" color="yellow" id="route_WN" />
    <route edges="WI IS" color="yellow" id="route_WS" />
    <route edges="EI IN" color="green" id="route_EN" />
    <route edges="EI IS" color="green" id="route_ES" />
    <route edges="EI IW" color="green" id="route_EW" />
    <route edges="SI IE" color="blue" id="route_SE" />
    <route edges="SI IN" color="blue" id="route_SN" />
    <route edges="SI IW" color="blue" id="route_SW" />
    <flow id="flow_NE" begin="0.00" color="red" from="NI" to="IE" end="450.00" probability="0.04"/>
    <flow id="flow_NS" begin="0.00" color="red" from="NI" to="IS" end="450.00" probability="0.04"/>
    <flow id="flow_NW" begin="0.00" color="red" from="NI" to="IW" end="450.00" probability="0.04"/>
    <flow id="flow_WE" begin="0.00" color="yellow" from="WI" to="IE" end="450.00" probability="0.01"/>
    <flow id="flow_WN" begin="0.00" color="yellow" from="WI" to="IN" end="450.00" probability="0.01"/>
    <flow id="flow_WS" begin="0.00" color="yellow" from="WI" to="IS" end="450.00" probability="0.01"/>
    <flow id="flow_EN" begin="0.00" color="green" from="EI" to="IN" end="450.00" probability="0.02"/>
    <flow id="flow_ES" begin="0.00" color="green" from="EI" to="IS" end="450.00" probability="0.02"/>
    <flow id="flow_EW" begin="0.00" color="green" from="EI" to="IW" end="450.00" probability="0.02"/>
    <flow id="flow_SE" begin="0.00" color="blue" from="SI" to="IE" end="450.00" probability="0.03"/>
    <flow id="flow_SN" begin="0.00" color="blue" from="SI" to="IN" end="450.00" probability="0.03"/>
    <flow id="flow_SW" begin="0.00" color="blue" from="SI" to="IW" end="450.00" probability="0.03"/>
    <personFlow id="personFlow_E" begin="0.00" end="450.00" probability="0.10">
        <personTrip from="EI" to="IW" />
    </personFlow>
    <personFlow id="personFlow_N" begin="0.00" end="450.00" probability="0.10">
        <personTrip from="NI" to="IS" />
    </personFlow>
    <personFlow id="personFlow_S" begin="0.00" end="450.00" probability="0.10">
        <personTrip from="SI" to="IN" />
    </personFlow>
    <personFlow id="personFlow_W" begin="0.00" end="450.00" probability="0.10">
        <personTrip from="WI" to="IE" />
    </personFlow>
</routes>